examples/national_grid/data/ireland/models/2008/sv2009.raw
<!DOCTYPE HTML PUBLIC "-//W3C//DTD HTML 4.0 Transitional//EN">
<!-- saved from url=(0084)http://www.eirgrid.com/EirgridPortal/uploads/Publications/Summer%20Valley%202009.raw -->
<HTML><HEAD>
<META http-equiv=Content-Type content="text/html; charset=windows-1252">
<META content="MSHTML 6.00.2900.3492" name=GENERATOR></HEAD>
<BODY><PRE>0,   100.00          / PSS/E-30.3    WED, NOV 26 2008  10:05
/ CASE: 2009;  SUMMER 01/07/2009; FORECAST STATEMENT 2008 -
/ FS08_SEP08 - MEMO  GALLERY_T;  15:40:40  TUESDAY, SEPTEMBE
    10,'F_M_____    ',  38.0000,1,     0.000,     0.000,   1,   3,1.02730,  -1.2454,   2
    11,'FMN_LOOP    ',  38.0000,1,     0.000,     0.000,   1,   1,1.03683,   0.6955,   2
    12,'BEDFORD     ',  38.0000,1,     0.000,     0.000,   1,   1,1.03211,  -0.3403,   2
    13,'M_R_____    ',  38.0000,1,     0.000,     0.000,   1,   1,1.02133,  -1.5808,   2
    14,'F_I_____    ',  38.0000,1,     0.000,     0.000,   1,   3,1.03383,   1.3040,   2
    15,'I_M_____    ',  38.0000,1,     0.000,     0.000,   1,   1,1.03088,   0.2484,   2
  1021,'ARDNACRU    ', 110.0000,1,     0.000,     0.000,   4,   1,1.00449,  12.0705,   1
  1041,'AGHADA      ', 110.0000,1,     0.000,     0.000,   3,   1,1.00175,  10.1184,   1
  1042,'AGHADA      ', 220.0000,1,     0.000,     0.000,   3,   1,1.01943,  20.6841,   1
  1052,'AGHADA2     ', 220.0000,1,     0.000,     0.000,   3,   1,1.01554,  10.1120,   1
  1061,'ARIGNA      ', 110.0000,1,     0.000,     0.000,   9,   1,0.99805,   6.9896,   2
  1062,'AGHADA3     ', 220.0000,1,     0.000,     0.000,   3,   1,1.01554,  10.1120,   1
  1071,'AGANNYGA    ', 110.0000,1,     0.000,     0.000,   4,   1,1.00605,  10.4191,   1
  1072,'AGHADA4     ', 220.0000,1,     0.000,     0.000,   3,   1,1.01962,  20.7442,   1
  1081,'AHANE       ', 110.0000,1,     0.000,     0.000,   7,   1,1.00871,  12.3079,   2
  1101,'ANNER       ', 110.0000,1,     0.000,     0.000,   5,   3,0.99603,   5.5293,   5
  1121,'ARKLOW      ', 110.0000,1,     0.000,     0.000,   6,   1,1.02682,   3.3690,   1
  1122,'ARKLOW      ', 220.0000,1,     0.000,     0.000,   6,   1,1.02596,   4.1888,   1
  1131,'ATHEA       ', 110.0000,1,     0.000,     0.000,   7,   5,1.00000,  17.7676,   4
  1141,'ATHLONE     ', 110.0000,1,     0.000,     0.000,   9,   1,0.99347,   6.4778,   1
  1161,'AUGHINIS    ', 110.0000,1,     0.000,     0.000,   7,   3,1.00000,  17.3812,   1
  1181,'ARVA        ', 110.0000,1,     0.000,     0.000,  10,   1,1.00234,   3.3306,   1
  1201,'ARTANE      ', 110.0000,1,     0.000,     0.000,   1,   1,1.04076,   2.4161,   2
  1221,'ATHY        ', 110.0000,1,     0.000,     0.000,   8,   1,1.02185,   3.0220,   1
  1231,'BALLYWAT    ', 110.0000,1,     0.000,     0.000,   6,   1,1.01450,   4.2315,   4
  1251,'BOOLTIAG    ', 110.0000,1,     0.000,     0.000,   4,   1,1.00000,  11.8035,   2
  1271,'BALTRASN    ', 110.0000,1,     0.000,     0.000,  10,   1,1.01637,   1.8182,   1
  1281,'BALLYLIC    ', 110.0000,1,     0.000,     0.000,   3,   1,0.98938,  12.1591,   2
  1301,'BALLYBEG    ', 110.0000,1,     0.000,     0.000,   6,   1,1.02796,   2.9186,   1
  1321,'BLAKE       ', 110.0000,1,     0.000,     0.000,   8,   1,1.01283,   2.1820,   2
  1341,'BINBANE     ', 110.0000,1,     0.000,     0.000,   9,   1,0.99949,   9.9397,   2
  1351,'BARODA      ', 110.0000,1,     0.000,     0.000,   8,   1,1.01315,   2.0691,   1
  1361,'BALLYDIN    ', 110.0000,1,     0.000,     0.000,   5,   1,0.99792,   5.3022,   1
  1381,'BARNAHEL    ', 110.0000,1,     0.000,     0.000,   3,   1,0.99275,   9.8576,   1
  1401,'BELLACOR    ', 110.0000,1,     0.000,     0.000,   9,   1,1.00965,   7.0969,   1
  1421,'BLACKROC    ', 110.0000,1,     0.000,     0.000,   1,   2,1.03168,   2.3746,   2
  1441,'BANDON      ', 110.0000,1,     0.000,     0.000,   3,   1,0.98687,  10.4067,   1
  1461,'BARRYMOR    ', 110.0000,1,     0.000,     0.000,   5,   1,0.99888,   9.5350,   2
  1481,'BUTLERST    ', 110.0000,1,     0.000,     0.000,   5,   1,1.00151,   4.4487,   1
  1501,'BRINNY      ', 110.0000,1,     0.000,     0.000,   3,   1,0.98673,  10.3972,   5
  1511,'BRINNY      ', 110.0000,1,     0.000,     0.000,   3,   1,0.98673,  10.3977,   5
  1581,'CABRA       ', 110.0000,1,     0.000,     0.000,   1,   2,1.04038,   2.3898,   2
  1601,'CLASHAVO    ', 110.0000,1,     0.000,     0.000,   3,   1,1.00525,  13.7698,   1
  1602,'CLASHAVO    ', 220.0000,1,     0.000,     0.000,   3,   1,1.01553,  17.1259,   1
  1611,'CLONKEEN    ', 110.0000,1,     0.000,     0.000,   7,   1,0.99993,  15.9014,   1
  1621,'COOLROE     ', 110.0000,1,     0.000,     0.000,   3,   1,0.99738,  11.4231,   1
  1631,'CORDERRY    ', 110.0000,1,     0.000,     0.000,   9,   1,1.00000,   7.5978,   1
  1641,'CASHLA      ', 110.0000,1,     0.000,     0.000,   9,   1,1.00351,  10.4867,   1
  1642,'CASHLA      ', 220.0000,1,     0.000,     0.000,   9,   1,1.00338,  12.5906,   1
  1651,'CLAHANE     ', 110.0000,1,     0.000,     0.000,   7,   5,1.00000,  17.3042,   1
  1661,'CASTLEBA    ', 110.0000,1,     0.000,     0.000,   9,   1,1.01646,   7.0781,   1
  1681,'CARRIGAD    ', 110.0000,1,     0.000,     0.000,   3,   1,1.00324,  12.8105,   1
  1691,'CENTRAL     ', 110.0000,1,     0.000,     0.000,   1,   1,1.03189,   2.4495,   1
  1701,'CATH_FAL    ', 110.0000,1,     0.000,     0.000,   9,   1,1.00344,   9.2473,   1
  1711,'CROMCAST    ', 110.0000,1,     0.000,     0.000,   1,   1,1.05864,   2.6390,   1
  1721,'CAHIR       ', 110.0000,1,     0.000,     0.000,   5,   1,0.99525,   6.8017,   1
  1731,'CROMCAST    ', 110.0000,1,     0.000,     0.000,   1,   1,1.05864,   2.6390,   1
  1741,'CARRICKM    ', 110.0000,1,     0.000,     0.000,   2,   2,1.03190,   2.4547,   2
  1742,'CARRICKM    ', 220.0000,1,     0.000,     0.000,   2,   2,1.03525,   4.2067,   1
  1761,'CLIFF       ', 110.0000,1,     0.000,     0.000,   9,   1,1.00345,   9.2470,   1
  1781,'CASTLEFA    ', 110.0000,1,     0.000,     0.000,   7,   3,0.99961,  17.3608,   5
  1791,'CASTLEFA    ', 110.0000,1,     0.000,     0.000,   7,   3,0.99960,  17.3596,   5
  1801,'COOKSTOW    ', 110.0000,1,     0.000,     0.000,   1,   2,1.02532,   1.7149,   2
  1821,'CLOON       ', 110.0000,1,     0.000,     0.000,   9,   1,1.00505,   8.6434,   1
  1841,'CRANE       ', 110.0000,1,     0.000,     0.000,   6,   1,1.01405,   3.9633,   1
  1851,'CHERRYWO    ', 110.0000,1,     0.000,     0.000,   2,   1,1.03139,   2.4174,   1
  1861,'CARICKON    ', 110.0000,1,     0.000,     0.000,   9,   1,0.99699,   6.0211,   1
  1871,'COLLEGE     ', 110.0000,1,     0.000,     0.000,   2,   1,1.02346,   2.5012,   1
  1881,'CHARLEVI    ', 110.0000,1,     0.000,     0.000,   3,   1,0.99838,  11.9690,   1
  1901,'CARLOW      ', 110.0000,1,     0.000,     0.000,   6,   1,1.03221,   3.1120,   1
  1921,'COW CROS    ', 110.0000,1,     0.000,     0.000,   3,   1,0.99615,  10.0996,   1
  1931,'CUNGHILL    ', 110.0000,1,     0.000,     0.000,   9,   1,1.00315,   7.6032,   4
  1941,'CUSHALIN    ', 110.0000,1,     0.000,     0.000,   8,   1,1.01517,   2.3737,   1
  1961,'CASTLEVI    ', 110.0000,1,     0.000,     0.000,   3,   1,0.99935,  10.6117,   1
  1971,'COOMAGEA    ', 110.0000,1,     0.000,     0.000,   7,   1,1.00000,  16.2083,   4
  1981,'CORRACLA    ', 110.0000,1,     0.000,     0.000,   9,   1,1.00538,   4.8336,   1
  2001,'CULLENAG    ', 110.0000,1,     0.000,     0.000,   5,   1,1.00366,   5.0046,   1
  2002,'CULLENAG    ', 220.0000,1,     0.000,     0.000,   5,   1,1.01053,   5.7069,   1
  2021,'CITY WES    ', 110.0000,1,     0.000,     0.000,   1,   1,1.03915,   2.4197,   2
  2031,'CHARLESL    ', 110.0000,1,     0.000,     0.000,   6,   1,1.02861,   2.5361,   1
  2041,'CORDUFF     ', 110.0000,1,     0.000,     0.000,   2,   1,1.02397,   2.5648,   1
  2042,'CORDUFF     ', 220.0000,1,     0.000,     0.000,   2,   1,1.03715,   4.4101,   1
  2051,'CORDUFF     ', 110.0000,1,     0.000,     0.000,   2,   1,1.02397,   2.5648,   1
  2081,'DUNKETTL    ', 110.0000,4,     0.000,     0.000,   3,   1,1.00000,   0.0000,   5
  2101,'DUNDALK     ', 110.0000,1,     0.000,     0.000,  10,   1,1.01952,   0.9360,   2
  2121,'DRUMLINE    ', 110.0000,1,     0.000,     0.000,   4,   1,1.00020,  11.4164,   1
  2141,'DUNGARVA    ', 110.0000,1,     0.000,     0.000,   5,   1,0.99763,   6.9101,   1
  2161,'DOON        ', 110.0000,1,     0.000,     0.000,   5,   1,0.99663,   5.5663,   1
  2181,'DRYBRIDG    ', 110.0000,1,     0.000,     0.000,  10,   1,1.00953,   1.1713,   1
  2202,'DUNSTOWN    ', 220.0000,1,     0.000,     0.000,   2,   1,1.03153,   4.5121,   1
  2204,'DUNSTOWN    ', 380.0000,1,     0.000,     0.000,   2,   1,1.03243,   8.3685,   1
  2221,'DUNMANWA    ', 110.0000,1,     0.000,     0.000,   3,   1,0.99141,  11.7361,   1
  2231,'DERRYBRI    ', 110.0000,1,     0.000,     0.000,   4,   1,1.00793,  10.7598,   2
  2241,'DALLOW      ', 110.0000,1,     0.000,     0.000,   5,   1,0.99975,   6.7090,   2
  2251,'DARDISTO    ', 110.0000,1,     0.000,     0.000,   1,   1,1.05890,   2.6641,   1
  2261,'DERRYIRO    ', 110.0000,1,     0.000,     0.000,   8,   1,1.01944,   2.0254,   1
  2281,'DALTON      ', 110.0000,1,     0.000,     0.000,   9,   1,1.00541,   7.8033,   1
  2301,'DUNFIRTH    ', 110.0000,1,     0.000,     0.000,   8,   1,1.02262,   2.2161,   2
  2321,'DRUMKEEN    ', 110.0000,1,     0.000,     0.000,   9,   1,1.01752,  12.6503,   1
  2361,'ENNIS       ', 110.0000,1,     0.000,     0.000,   4,   1,1.00019,  11.1714,   1
  2481,'FASS EAS    ', 110.0000,1,     0.000,     0.000,   2,   2,1.03001,   2.3554,   2
  2491,'FASS WES    ', 110.0000,1,     0.000,     0.000,   2,   2,1.03010,   2.3603,   2
  2521,'FLAGFORD    ', 110.0000,1,     0.000,     0.000,   9,   1,0.99715,   6.0930,   1
  2522,'FLAGFORD    ', 220.0000,1,     0.000,     0.000,   9,   1,1.00049,   7.0605,   1
  2541,'FRN ST A    ', 110.0000,1,     0.000,     0.000,   1,   2,1.04336,   1.5987,   2
  2551,'FRN ST B    ', 110.0000,1,     0.000,     0.000,   1,   2,1.04131,   2.5344,   2
  2561,'FIN_URBA    ', 110.0000,1,     0.000,     0.000,   2,   2,1.04121,   2.5040,   1
  2562,'FINGLAS     ', 220.0000,1,     0.000,     0.000,   2,   2,1.04000,   4.1860,   1
  2571,'FIN_RURA    ', 110.0000,1,     0.000,     0.000,   2,   2,1.05822,   2.7088,   1
  2581,'FIN_SUBU    ', 110.0000,1,     0.000,     0.000,   2,   1,1.02347,   2.4840,   1
  2591,'FIN_OPEN    ', 110.0000,1,     0.000,     0.000,   2,   1,1.04000,   4.1860,   2
  2681,'GILRA       ', 110.0000,1,     0.000,     0.000,   9,   3,0.99361,   5.8831,   2
  2701,'GLASMORE    ', 110.0000,1,     0.000,     0.000,   1,   2,1.05684,   2.4016,   2
  2721,'GRIFFINR    ', 110.0000,1,     0.000,     0.000,   2,   2,1.02189,   2.2249,   2
  2731,'GLANLEE     ', 110.0000,1,     0.000,     0.000,   7,   5,1.00005,  16.2275,   4
  2741,'GREAT IS    ', 110.0000,1,     0.000,     0.000,   6,   1,1.00667,   4.3453,   1
  2742,'GREAT IS    ', 220.0000,1,     0.000,     0.000,   6,   1,1.01413,   5.0219,   1
  2761,'GRANGE      ', 110.0000,1,     0.000,     0.000,   1,   2,1.05828,   2.6048,   2
  2771,'GARROW      ', 110.0000,1,     0.000,     0.000,   7,   1,1.00000,  16.0621,   7
  2781,'GALWAY      ', 110.0000,1,     0.000,     0.000,   9,   1,0.99681,   9.8608,   1
  2801,'GOLAGH      ', 110.0000,1,     0.000,     0.000,   9,   1,1.00955,  10.8549,   4
  2821,'GORTAWEE    ', 110.0000,1,     0.000,     0.000,   9,   1,1.00412,   4.0686,   1
  2841,'GORMAN      ', 110.0000,1,     0.000,     0.000,  10,   1,1.00406,   1.2762,   1
  2842,'GORMAN      ', 220.0000,1,     0.000,     0.000,  10,   1,1.01350,   2.1475,   1
  2852,'GLANAGOW    ', 220.0000,1,     0.000,     0.000,   3,   1,1.01563,  10.1114,   1
  2861,'GRANGE C    ', 110.0000,1,     0.000,     0.000,   1,   1,1.03763,   2.5960,   2
  2881,'GLENLARA    ', 110.0000,1,     0.000,     0.000,   3,   1,0.99669,  12.5683,   2
  2941,'HAROLDS     ', 110.0000,1,     0.000,     0.000,   1,   2,1.04341,   1.6030,   2
  2962,'HUNTSTOW    ', 220.0000,1,     0.000,     0.000,   2,   1,1.04001,   4.1859,   4
  2972,'HUNTSTOW    ', 220.0000,1,     0.000,     0.000,   2,   1,1.03626,   4.6658,   4
  3061,'INISCARR    ', 110.0000,1,     0.000,     0.000,   3,   1,0.99818,  11.6145,   1
  3081,'INCH_CIT    ', 110.0000,1,     0.000,     0.000,   1,   2,1.04150,   2.5778,   2
  3082,'INCHICOR    ', 220.0000,1,     0.000,     0.000,   2,   2,1.04146,   3.5741,   1
  3091,'INCH_COU    ', 110.0000,1,     0.000,     0.000,   1,   1,1.03904,   2.7805,   2
  3101,'IKERRIN     ', 110.0000,1,     0.000,     0.000,   5,   1,0.98466,   6.1237,   2
  3122,'IRISHTOW    ', 220.0000,1,     0.000,     0.000,   2,   1,1.04000,   4.1635,   1
  3201,'KNOCKRAH    ', 110.0000,1,     0.000,     0.000,   3,   1,1.00267,  10.9815,   1
  3202,'KNOCKRAH    ', 220.0000,1,     0.000,     0.000,   3,   1,1.01348,  18.4527,   1
  3212,'KNOCKRAH    ', 220.0000,1,     0.000,     0.000,   3,   1,1.00361,   9.0872,   1
  3221,'KILBARRY    ', 110.0000,1,     0.000,     0.000,   3,   1,0.99612,  10.6377,   1
  3241,'KILTEEL     ', 110.0000,1,     0.000,     0.000,   8,   1,1.01382,   1.8823,   2
  3261,'KILKENNY    ', 110.0000,1,     0.000,     0.000,   6,   1,1.01187,   2.8567,   1
  3281,'KILLONAN    ', 110.0000,1,     0.000,     0.000,   7,   1,1.00874,  12.3148,   1
  3282,'KILLONAN    ', 220.0000,1,     0.000,     0.000,   7,   1,1.00517,  14.1916,   1
  3301,'KNOCKERA    ', 110.0000,1,     0.000,     0.000,   7,   1,0.99514,  15.8435,   1
  3321,'KNOCKUMB    ', 110.0000,1,     0.000,     0.000,  10,   3,0.99558,   0.9598,   5
  3341,'KELLIS      ', 110.0000,1,     0.000,     0.000,   6,   1,1.03421,   3.1907,   1
  3342,'KELLIS      ', 220.0000,1,     0.000,     0.000,   6,   1,1.01720,   4.2790,   1
  3361,'KILTOY      ', 110.0000,1,     0.000,     0.000,   9,   3,1.01788,  12.6922,   5
  3381,'KINNEGAD    ', 110.0000,1,     0.000,     0.000,   8,   1,1.02006,   2.0204,   1
  3401,'KILLOTER    ', 110.0000,1,     0.000,     0.000,   5,   1,1.00233,   4.4126,   1
  3421,'KILMORE     ', 110.0000,1,     0.000,     0.000,   1,   1,1.05863,   2.6394,   2
  3501,'LANESBOR    ', 110.0000,1,     0.000,     0.000,   9,   1,0.99628,   5.8886,   1
  3521,'LOUTH       ', 110.0000,1,     0.000,     0.000,  10,   1,1.02401,   1.1998,   1
  3522,'LOUTH       ', 220.0000,1,     0.000,     0.000,  10,   1,1.00302,   1.6152,   1
  3541,'LIMERICK    ', 110.0000,1,     0.000,     0.000,   7,   1,1.00408,  12.6661,   1
  3561,'LISDRUM     ', 110.0000,1,     0.000,     0.000,  10,   1,1.01001,   1.4149,   1
  3572,'LONGPOIN    ', 220.0000,1,     0.000,     0.000,   3,   1,1.02000,  20.8253,   1
  3581,'LETTERKE    ', 110.0000,1,     0.000,     0.000,   9,   1,1.01787,  12.6925,   1
  3601,'LIBERTY     ', 110.0000,1,     0.000,     0.000,   3,   1,0.99488,  10.3411,   2
  3611,'LIBERTY     ', 110.0000,1,     0.000,     0.000,   3,   1,0.99492,  10.3445,   2
  3621,'LISHEEN     ', 110.0000,1,     0.000,     0.000,   5,   1,0.97701,   5.3751,   5
  3751,'MISERY H    ', 110.0000,1,     0.000,     0.000,   1,   1,1.04360,   1.6322,   2
  3761,'MACETOWN    ', 110.0000,1,     0.000,     0.000,   1,   2,1.02291,   2.4587,   1
  3781,'MCDERMOT    ', 110.0000,1,     0.000,     0.000,   1,   2,1.04046,   2.3871,   2
  3801,'MIDLETON    ', 110.0000,1,     0.000,     0.000,   3,   1,0.99929,  10.5361,   1
  3821,'MEATH HI    ', 110.0000,1,     0.000,     0.000,  10,   1,1.01687,   1.0407,   2
  3841,'MAYNOOTH    ', 110.0000,1,     0.000,     0.000,   2,   2,1.02286,   2.2876,   1
  3842,'MAYNOOTH    ', 220.0000,1,     0.000,     0.000,   2,   2,1.03210,   3.2853,   1
  3851,'MAYNOOTH    ', 110.0000,1,     0.000,     0.000,   2,   2,1.02703,   2.6488,   1
  3852,'MAYNOOTH    ', 220.0000,1,     0.000,     0.000,   2,   2,1.03117,   4.2899,   1
  3861,'MILLTOWN    ', 110.0000,1,     0.000,     0.000,   1,   2,1.04337,   1.6389,   2
  3871,'MILLTOWN    ', 110.0000,1,     0.000,     0.000,   1,   2,1.04087,   2.4538,   2
  3881,'MACROOM     ', 110.0000,1,     0.000,     0.000,   3,   1,1.00347,  12.8763,   1
  3901,'MONETEEN    ', 110.0000,1,     0.000,     0.000,   7,   1,1.00142,  13.5276,   1
  3934,'MNYPG1      ', 380.0000,1,     0.000,     6.000,   4,   1,1.04000,  13.9337,   1
  3941,'MONEYPOI    ', 110.0000,1,     0.000,     0.000,   4,   1,0.99645,  12.2149,   1
  3942,'MONEYPOI    ', 220.0000,1,     0.000,     0.000,   7,   1,1.03871,  17.4930,   1
  3944,'MNYPG3      ', 380.0000,1,     0.000,     6.000,   4,   1,1.04000,  13.9337,   1
  3954,'MNYPG2      ', 380.0000,1,     0.000,     6.000,   7,   1,1.04000,  20.3188,   1
  3961,'MARINA      ', 110.0000,1,     0.000,     0.000,   3,   1,0.99495,  10.3482,   1
  3981,'MUNGRET     ', 110.0000,1,     0.000,     0.000,   7,   3,1.00127,  13.5186,   5
  3991,'MUNGRET     ', 110.0000,1,     0.000,     0.000,   7,   3,1.00127,  13.5190,   5
  4001,'MULLINGA    ', 110.0000,1,     0.000,     0.000,   9,   1,1.00098,   3.8133,   1
  4021,'MALLOW      ', 110.0000,1,     0.000,     0.000,   3,   1,0.99531,  11.4055,   1
  4041,'MOY         ', 110.0000,1,     0.000,     0.000,   9,   1,1.00421,   7.0443,   1
  4061,'MULLAGHA    ', 110.0000,1,     0.000,     0.000,  10,   1,1.01993,   0.9542,   2
  4071,'MEENTYCA    ', 110.0000,1,     0.000,     0.000,   9,   1,1.01878,  12.9573,   4
  4081,'MONREAD     ', 110.0000,1,     0.000,     0.000,   8,   1,1.01394,   1.9793,   1
  4201,'NEWBRIDG    ', 110.0000,1,     0.000,     0.000,   8,   1,1.01255,   2.1489,   1
  4211,'NORTH QU    ', 110.0000,1,     0.000,     0.000,   1,   1,1.04361,   1.6575,   2
  4221,'NAVAN       ', 110.0000,1,     0.000,     0.000,  10,   1,1.00002,   1.1977,   1
  4242,'NORTH WA    ', 220.0000,1,     0.000,     0.000,   2,   2,1.04179,   4.1311,   1
  4261,'NENAGH      ', 110.0000,1,     0.000,     0.000,   7,   1,0.99963,  11.7428,   2
  4281,'NANGOR      ', 110.0000,1,     0.000,     0.000,   1,   1,1.03755,   2.5906,   2
  4341,'OLDCOURT    ', 110.0000,1,     0.000,     0.000,   3,   3,0.99614,  10.0985,   5
  4351,'OLDCOURT    ', 110.0000,1,     0.000,     0.000,   3,   3,0.99615,  10.0995,   5
  4361,'OUGHTRAG    ', 110.0000,1,     0.000,     0.000,   7,   1,0.99020,  15.9345,   2
  4382,'OLDSTREE    ', 220.0000,1,     0.000,     0.000,   4,   1,1.00806,  14.5209,   1
  4384,'OLDSTREE    ', 380.0000,1,     0.000,     0.000,   4,   1,1.03027,  12.5795,   1
...
0 / END OF BUS DATA, BEGIN LOAD DATA
    10,'LD',1,   1,   1,    46.820,     6.740,     0.000,     0.000,     0.000,     0.000,   2
    11,'LD',1,   1,   1,    22.380,     2.130,     0.000,     0.000,     0.000,     0.000,   2
    12,'LD',1,   1,   1,    24.160,     7.640,     0.000,     0.000,     0.000,     0.000,   2
    13,'LD',1,   1,   1,    38.790,    12.220,     0.000,     0.000,     0.000,     0.000,   2
    14,'LD',1,   1,   1,    16.440,     4.730,     0.000,     0.000,     0.000,     0.000,   2
    15,'LD',1,   1,   1,    34.600,     6.350,     0.000,     0.000,     0.000,     0.000,   2
  1041,'LD',1,   3,   1,     0.870,     0.290,     0.000,     0.000,     0.000,     0.000,   2
  1101,'DM',1,   5,   2,    11.000,     3.840,     0.000,     0.000,     0.000,     0.000,   5
  1101,'MI',0,   5,   2,     5.620,     1.680,     0.000,     0.000,     0.000,     0.000,   5
  3621,'DM',1,   5,   2,    14.000,     4.590,     0.000,     0.000,     0.000,     0.000,   5
  4341,'DM',1,   3,   2,     0.280,     0.100,     0.000,     0.000,     0.000,     0.000,   5
  4901,'DM',1,   6,   2,     2.290,     0.800,     0.000,     0.000,     0.000,     0.000,   5
 10204,'LD',1,   4,   1,    -5.540,    -1.900,     0.000,     0.000,     0.000,     0.000,   2
 10205,'LD',1,   4,   1,    21.150,     6.950,     0.000,     0.000,     0.000,     0.000,   2
 10471,'HL',0,   3,   1,    11.990,     4.310,     0.000,     0.000,     0.000,     0.000,   3
 10475,'HL',0,   3,   1,     0.300,     0.100,     0.000,     0.000,     0.000,     0.000,   3
 10602,'LD',1,   9,   1,     1.210,     0.430,     0.000,     0.000,     0.000,     0.000,   2
 10801,'LD',1,   7,   1,     0.970,     0.110,     0.000,     0.000,     0.000,     0.000,   2
 11204,'LD',1,   6,   1,    20.020,     0.760,     0.000,     0.000,     0.000,     0.000,   2
 11404,'LD',1,   9,   1,    21.630,     7.030,     0.000,     0.000,     0.000,     0.000,   2
 12001,'LD',1,   1,   1,     4.960,     1.300,     0.000,     0.000,     0.000,     0.000,   2
 12202,'LD',1,   8,   1,     6.670,     2.190,     0.000,     0.000,     0.000,     0.000,   2
 12702,'DM',1,  10,   2,     2.000,     0.700,     0.000,     0.000,     0.000,     0.000,   5
 12702,'LD',1,  10,   1,     5.350,     1.430,     0.000,     0.000,     0.000,     0.000,   2
 12804,'LD',1,   3,   1,     4.220,     1.840,     0.000,     0.000,     0.000,     0.000,   2
 13001,'LD',1,   6,   1,     0.970,     0.440,     0.000,     0.000,     0.000,     0.000,   2
 13204,'LD',1,   8,   1,     9.400,     9.620,     0.000,     0.000,     0.000,     0.000,   2
 13404,'LD',1,   9,   1,     8.010,     2.180,     0.000,     0.000,     0.000,     0.000,   2
 13501,'DM',1,   8,   2,     2.000,     0.600,     0.000,     0.000,     0.000,     0.000,   5
 13601,'DM',1,   5,   2,     2.500,     0.800,     0.000,     0.000,     0.000,     0.000,   5
 13601,'MI',0,   5,   2,     1.220,     0.360,     0.000,     0.000,     0.000,     0.000,   5
 13604,'LD',1,   5,   1,     3.140,     1.410,     0.000,     0.000,     0.000,     0.000,   2
 13802,'LD',1,   3,   1,    19.970,     6.560,     0.000,     0.000,     0.000,     0.000,   2
 13804,'LD',1,   3,   1,    10.360,     3.410,     0.000,     0.000,     0.000,     0.000,   2
 14002,'LD',1,   9,   1,     1.190,     0.540,     0.000,     0.000,     0.000,     0.000,   2
 14204,'LD',1,   1,   1,    17.320,     0.620,     0.000,     0.000,     0.000,     0.000,   2
 14401,'LD',1,   3,   1,     1.510,     0.500,     0.000,     0.000,     0.000,     0.000,   2
 14404,'LD',1,   3,   1,    13.620,     1.870,     0.000,     0.000,     0.000,     0.000,   2
 14604,'LD',1,   5,   1,     9.530,     3.130,     0.000,     0.000,     0.000,     0.000,   2
 14804,'LD',1,   5,   1,    20.550,     4.110,     0.000,     0.000,     0.000,     0.000,   2
 15001,'DM',1,   3,   2,     4.200,     1.400,     0.000,     0.000,     0.000,     0.000,   5
 15001,'MI',0,   3,   2,     1.970,     0.590,     0.000,     0.000,     0.000,     0.000,   5
 15801,'LD',1,   1,   1,     4.730,     1.550,     0.000,     0.000,     0.000,     0.000,   2
 16202,'LD',1,   3,   1,     8.220,     1.990,     0.000,     0.000,     0.000,     0.000,   2
 16604,'LD',1,   9,   1,    22.880,     5.230,     0.000,     0.000,     0.000,     0.000,   2
 16901,'LD',1,   1,   1,     2.030,     0.710,     0.000,     0.000,     0.000,     0.000,   2
 17004,'LD',1,   9,   1,     6.200,     1.120,     0.000,     0.000,     0.000,     0.000,   2
 17204,'DM',1,   5,   2,     1.000,     0.300,     0.000,     0.000,     0.000,     0.000,   5
 17204,'LD',1,   5,   1,     9.080,     2.700,     0.000,     0.000,     0.000,     0.000,   2
 17404,'LD',1,   2,   1,    24.570,     7.360,     0.000,     0.000,     0.000,     0.000,   2
 17802,'DM',1,   7,   2,    44.000,    14.500,     0.000,     0.000,     0.000,     0.000,   5
 17802,'MI',0,   7,   2,     5.000,     1.500,     0.000,     0.000,     0.000,     0.000,   5
 18004,'LD',1,   1,   1,    26.920,     3.880,     0.000,     0.000,     0.000,     0.000,   2
 18204,'LD',1,   9,   1,    11.150,     3.580,     0.000,     0.000,     0.000,     0.000,   2
 18402,'LD',1,   6,   1,     1.960,     0.640,     0.000,     0.000,     0.000,     0.000,   2
 18404,'LD',1,   6,   1,     9.400,     3.240,     0.000,     0.000,     0.000,     0.000,   2
 18501,'LD',1,   2,   1,     9.490,     3.120,     0.000,     0.000,     0.000,     0.000,   2
 18604,'LD',1,   9,   1,    15.250,     4.000,     0.000,     0.000,     0.000,     0.000,   2
 18701,'DM',1,   2,   2,    22.800,     7.500,     0.000,     0.000,     0.000,     0.000,   5
 18701,'LD',1,   2,   1,     3.240,     1.300,     0.000,     0.000,     0.000,     0.000,   2
 18804,'LD',1,   3,   1,     3.680,     3.460,     0.000,     0.000,     0.000,     0.000,   2
 19004,'LD',1,   6,   1,    13.960,     2.220,     0.000,     0.000,     0.000,     0.000,   2
 19204,'LD',1,   3,   1,     3.180,     1.040,     0.000,     0.000,     0.000,     0.000,   2
 19471,'HL',0,   8,   2,    11.700,     4.210,     0.000,     0.000,     0.000,     0.000,   4
 19601,'LD',1,   3,   1,     9.670,     3.170,     0.000,     0.000,     0.000,     0.000,   2
 20201,'LD',1,   1,   1,    11.360,     3.730,     0.000,     0.000,     0.000,     0.000,   2
 20301,'DM',1,   6,   2,     7.920,     2.600,     0.000,     0.000,     0.000,     0.000,   5
 21004,'LD',1,  10,   1,    14.270,     3.590,     0.000,     0.000,     0.000,     0.000,   2
 21204,'LD',1,   4,   1,    10.850,     2.160,     0.000,     0.000,     0.000,     0.000,   2
 21404,'LD',1,   5,   1,    11.020,     2.160,     0.000,     0.000,     0.000,     0.000,   2
 21604,'LD',1,   5,   1,    11.570,     1.190,     0.000,     0.000,     0.000,     0.000,   2
 21804,'LD',1,  10,   1,    25.740,     4.000,     0.000,     0.000,     0.000,     0.000,   2
 22204,'LD',1,   3,   1,    12.670,     2.010,     0.000,     0.000,     0.000,     0.000,   2
 22404,'LD',1,   5,   1,     3.070,     1.560,     0.000,     0.000,     0.000,     0.000,   2
 22501,'LD',1,   1,   1,     2.420,     0.770,     0.000,     0.000,     0.000,     0.000,   2
 22671,'HL',0,   8,   1,     0.300,     0.100,     0.000,     0.000,     0.000,     0.000,   1
 22672,'HL',0,   8,   1,     0.300,     0.100,     0.000,     0.000,     0.000,     0.000,   1
 22804,'LD',1,   9,   1,     7.890,     3.680,     0.000,     0.000,     0.000,     0.000,   2
 23001,'LD',1,   8,   1,     2.020,     0.660,     0.000,     0.000,     0.000,     0.000,   2
 23601,'LD',1,   4,   1,     4.390,     1.460,     0.000,     0.000,     0.000,     0.000,   2
 23604,'LD',1,   4,   1,    13.670,     2.210,     0.000,     0.000,     0.000,     0.000,   2
 24804,'LD',1,   2,   1,    16.640,     6.490,     0.000,     0.000,     0.000,     0.000,   2
 25604,'LD',1,   2,   1,    31.600,     5.590,     0.000,     0.000,     0.000,     0.000,   2
 26802,'DM',1,   9,   2,    11.870,     3.900,     0.000,     0.000,     0.000,     0.000,   5
 27004,'LD',1,   1,   1,    11.970,     3.170,     0.000,     0.000,     0.000,     0.000,   2
 27204,'LD',1,   2,   1,    25.820,    10.210,     0.000,     0.000,     0.000,     0.000,   2
 27404,'LD',1,   6,   1,     5.410,     2.160,     0.000,     0.000,     0.000,     0.000,   2
 27471,'HL',0,   6,   1,     3.000,     1.080,     0.000,     0.000,     0.000,     0.000,   3
 27472,'HL',0,   6,   1,     3.000,     1.080,     0.000,     0.000,     0.000,     0.000,   3
 27473,'HL',0,   6,   1,     7.990,     2.870,     0.000,     0.000,     0.000,     0.000,   3
 27604,'LD',1,   1,   1,    25.180,     7.850,     0.000,     0.000,     0.000,     0.000,   2
 27801,'LD',1,   9,   1,    21.480,     9.300,     0.000,     0.000,     0.000,     0.000,   2
 27804,'LD',1,   9,   1,    49.600,     6.620,     0.000,     0.000,     0.000,     0.000,   2
 28201,'DM',1,   9,   2,    17.000,     5.600,     0.000,     0.000,     0.000,     0.000,   5
 28201,'MI',0,   9,   2,     3.890,     1.160,     0.000,     0.000,     0.000,     0.000,   5
 28204,'LD',1,   9,   1,     3.570,     1.070,     0.000,     0.000,     0.000,     0.000,   2
 28571,'HL',0,   3,   1,     9.810,     3.530,     0.000,     0.000,     0.000,     0.000,   1
 28604,'LD',1,   1,   1,    18.060,     0.970,     0.000,     0.000,     0.000,     0.000,   2
 28804,'LD',1,   3,   1,     4.730,     1.510,     0.000,     0.000,     0.000,     0.000,   2
 29401,'LD',1,   1,   1,     9.730,     3.190,     0.000,     0.000,     0.000,     0.000,   2
 29672,'HL',0,   2,   2,     7.000,     2.520,     0.000,     0.000,     0.000,     0.000,   4
 30804,'LD',1,   1,   1,    20.880,     5.480,     0.000,     0.000,     0.000,     0.000,   2
 31004,'LD',1,   5,   1,     7.230,     3.570,     0.000,     0.000,     0.000,     0.000,   2
 31271,'HL',1,   2,   2,     4.200,     1.510,     0.000,     0.000,     0.000,     0.000,   4
 32201,'LD',1,   3,   1,     3.000,     0.980,     0.000,     0.000,     0.000,     0.000,   2
 32204,'LD',1,   3,   1,    24.650,     1.720,     0.000,     0.000,     0.000,     0.000,   2
 32404,'LD',1,   8,   1,    15.680,     6.550,     0.000,     0.000,     0.000,     0.000,   2
 32604,'LD',1,   6,   1,    23.220,     5.790,     0.000,     0.000,     0.000,     0.000,   2
 33004,'LD',1,   7,   1,    15.460,     3.680,     0.000,     0.000,     0.000,     0.000,   2
 33201,'DM',1,  10,   2,    24.220,     8.000,     0.000,     0.000,     0.000,     0.000,   5
 33801,'DM',1,   8,   2,     4.000,     1.300,     0.000,     0.000,     0.000,     0.000,   5
 34001,'LD',1,   5,   1,     1.730,     0.500,     0.000,     0.000,     0.000,     0.000,   2
 34201,'DM',1,   1,   2,     3.020,     1.000,     0.000,     0.000,     0.000,     0.000,   5
 34201,'LD',1,   1,   1,     3.080,     1.130,     0.000,     0.000,     0.000,     0.000,   2
 35004,'LD',1,   9,   1,     5.410,     1.980,     0.000,     0.000,     0.000,     0.000,   2
 35074,'HL',0,   9,   1,     9.000,     3.240,     0.000,     0.000,     0.000,     0.000,   3
 35404,'LD',1,   7,   1,    37.670,    10.130,     0.000,     0.000,     0.000,     0.000,   2
 35604,'LD',1,  10,   1,     9.840,     1.730,     0.000,     0.000,     0.000,     0.000,   2
 35771,'HL',1,   3,   1,    10.260,     3.690,     0.000,     0.000,     0.000,     0.000,   1
 35804,'LD',1,   9,   1,    17.020,     4.770,     0.000,     0.000,     0.000,     0.000,   2
 36001,'LD',1,   3,   1,     6.190,     2.030,     0.000,     0.000,     0.000,     0.000,   2
 37501,'DM',1,   1,   2,     2.000,     0.700,     0.000,     0.000,     0.000,     0.000,   5
 37501,'LD',1,   1,   1,     2.310,     0.760,     0.000,     0.000,     0.000,     0.000,   2
 37601,'LD',1,   2,   1,    17.920,     5.190,     0.000,     0.000,     0.000,     0.000,   2
 37602,'DM',1,   2,   2,     5.000,     1.600,     0.000,     0.000,     0.000,     0.000,   5
 37602,'MI',0,   2,   2,     5.440,     1.630,     0.000,     0.000,     0.000,     0.000,   5
 38001,'LD',1,   3,   1,     3.370,     1.100,     0.000,     0.000,     0.000,     0.000,   2
 38004,'LD',1,   3,   1,    10.810,     3.030,     0.000,     0.000,     0.000,     0.000,   2
 38204,'LD',1,  10,   1,    15.100,     7.770,     0.000,     0.000,     0.000,     0.000,   2
 38601,'LD',1,   1,   1,     4.330,     2.160,     0.000,     0.000,     0.000,     0.000,   2
 38701,'LD',1,   1,   1,     4.330,     2.160,     0.000,     0.000,     0.000,     0.000,   2
 38804,'LD',1,   3,   1,     3.740,     1.640,     0.000,     0.000,     0.000,     0.000,   2
 39471,'HL',1,   4,   1,    11.900,     4.280,     0.000,     0.000,     0.000,     0.000,   3
 39472,'HL',1,   7,   1,    11.900,     4.280,     0.000,     0.000,     0.000,     0.000,   3
 39473,'HL',1,   4,   1,    11.900,     4.280,     0.000,     0.000,     0.000,     0.000,   3
 39601,'LD',1,   3,   1,     7.450,     2.440,     0.000,     0.000,     0.000,     0.000,   2
 39672,'HL',0,   3,   1,     3.000,     1.080,     0.000,     0.000,     0.000,     0.000,   3
 39675,'HL',0,   3,   1,     5.000,     1.800,     0.000,     0.000,     0.000,     0.000,   3
 39801,'DM',1,   7,   2,    15.000,     4.900,     0.000,     0.000,     0.000,     0.000,   5
 40001,'LD',1,   9,   1,     5.170,     1.430,     0.000,     0.000,     0.000,     0.000,   2
 40004,'LD',1,   9,   1,     7.260,     1.380,     0.000,     0.000,     0.000,     0.000,   2
 40204,'LD',1,   3,   1,     6.720,     1.670,     0.000,     0.000,     0.000,     0.000,   2
 40404,'LD',1,   9,   1,    10.480,     1.940,     0.000,     0.000,     0.000,     0.000,   2
 40601,'LD',1,  10,   1,     1.000,     0.320,     0.000,     0.000,     0.000,     0.000,   2
 40602,'DM',1,  10,   2,     2.000,     0.700,     0.000,     0.000,     0.000,     0.000,   5
 40604,'LD',1,  10,   1,     7.120,     2.140,     0.000,     0.000,     0.000,     0.000,   2
 40801,'LD',1,   8,   1,     0.820,     0.270,     0.000,     0.000,     0.000,     0.000,   2
 42004,'LD',1,   8,   1,    12.810,     5.810,     0.000,     0.000,     0.000,     0.000,   2
 42102,'DM',1,   1,   2,     7.220,     2.400,     0.000,     0.000,     0.000,     0.000,   5
 42102,'LD',1,   1,   1,     5.600,     1.840,     0.000,     0.000,     0.000,     0.000,   2
 42204,'LD',1,  10,   1,    18.920,    12.220,     0.000,     0.000,     0.000,     0.000,   2
 42604,'LD',1,   7,   1,    10.170,     3.340,     0.000,     0.000,     0.000,     0.000,   2
 42802,'DM',1,   1,   2,    11.000,     3.600,     0.000,     0.000,     0.000,     0.000,   5
 43604,'LD',1,   7,   1,    16.760,     3.330,     0.000,     0.000,     0.000,     0.000,   2
 44001,'LD',1,   1,   1,     4.950,     1.660,     0.000,     0.000,     0.000,     0.000,   2
 44671,'HL',0,   2,   1,     5.500,     1.980,     0.000,     0.000,     0.000,     0.000,   3
 44672,'HL',0,   2,   1,     5.500,     1.980,     0.000,     0.000,     0.000,     0.000,   3
 44673,'HL',0,   2,   1,    12.990,     4.670,     0.000,     0.000,     0.000,     0.000,   3
 44804,'LD',1,   8,   1,     8.250,    -0.110,     0.000,     0.000,     0.000,     0.000,   2
 44901,'DM',1,   1,   2,     6.960,     2.290,     0.000,     0.000,     0.000,     0.000,   5
 44901,'LD',1,   1,   1,     2.950,     0.850,     0.000,     0.000,     0.000,     0.000,   2
 45001,'DM',1,  10,   2,    21.000,     6.600,     0.000,     0.000,     0.000,     0.000,   5
 45101,'LD',1,   1,   1,     5.350,     1.070,     0.000,     0.000,     0.000,     0.000,   2
 46210,'DM',1,   2,   2,    16.000,     5.300,     0.000,     0.000,     0.000,     0.000,   5
 46214,'DM',1,   2,   2,    26.000,     8.500,     0.000,     0.000,     0.000,     0.000,   5
 46224,'DM',1,   2,   2,    23.000,     7.600,     0.000,     0.000,     0.000,     0.000,   5
 46501,'LD',1,   1,   1,    11.140,     4.870,     0.000,     0.000,     0.000,     0.000,   2
 46804,'LD',1,   7,   1,     9.620,     1.840,     0.000,     0.000,     0.000,     0.000,   2
 47004,'LD',1,   9,   1,     8.250,     1.510,     0.000,     0.000,     0.000,     0.000,   2
 47402,'DM',1,   2,   2,     7.600,     2.500,     0.000,     0.000,     0.000,     0.000,   5
 47601,'LD',1,   3,   1,     0.760,     0.250,     0.000,     0.000,     0.000,     0.000,   2
 49474,'HL',0,   5,   1,    13.000,     4.680,     0.000,     0.000,     0.000,     0.000,   3
 49604,'LD',1,  10,   1,    17.290,     6.290,     0.000,     0.000,     0.000,     0.000,   2
 49804,'LD',1,   9,   1,    19.240,     4.000,     0.000,     0.000,     0.000,     0.000,   2
 50004,'LD',1,   9,   1,    10.280,     3.100,     0.000,     0.000,     0.000,     0.000,   2
 50276,'HL',0,   2,   1,     9.990,     3.590,     0.000,     0.000,     0.000,     0.000,   3
 50301,'LD',1,   1,   1,     4.640,     1.520,     0.000,     0.000,     0.000,     0.000,   2
 50573,'HL',1,   7,   2,     0.790,     0.280,     0.000,     0.000,     0.000,     0.000,   4
 50574,'HL',1,   7,   2,     0.790,     0.280,     0.000,     0.000,     0.000,     0.000,   4
 50604,'LD',1,   6,   1,     5.950,     0.540,     0.000,     0.000,     0.000,     0.000,   2
 50901,'LD',1,   7,   1,     4.280,     1.180,     0.000,     0.000,     0.000,     0.000,   2
 51471,'HL',0,   7,   1,     3.000,     1.080,     0.000,     0.000,     0.000,     0.000,   3
 51472,'HL',0,   7,   1,     3.000,     1.080,     0.000,     0.000,     0.000,     0.000,   3
 51473,'HL',0,   7,   1,    15.300,     5.500,     0.000,     0.000,     0.000,     0.000,   3
 51474,'HL',0,   7,   1,    15.300,     5.500,     0.000,     0.000,     0.000,     0.000,   3
 51771,'HL',1,   4,   2,     4.570,     1.640,     0.000,     0.000,     0.000,     0.000,   4
 51801,'LD',1,   3,   1,     5.760,     1.890,     0.000,     0.000,     0.000,     0.000,   2
 51804,'LD',1,   3,   1,    16.900,     5.550,     0.000,     0.000,     0.000,     0.000,   2
 52204,'LD',1,   4,   1,     7.810,     3.630,     0.000,     0.000,     0.000,     0.000,   2
 52476,'HL',0,   9,   1,     0.300,     0.100,     0.000,     0.000,     0.000,     0.000,   3
 52604,'LD',1,   7,   1,    14.680,     5.330,     0.000,     0.000,     0.000,     0.000,   2
 52804,'LD',1,   7,   1,    14.940,     2.870,     0.000,     0.000,     0.000,     0.000,   2
 53004,'LD',1,   5,   1,    12.880,     2.800,     0.000,     0.000,     0.000,     0.000,   2
 53204,'LD',1,   8,   1,     9.520,     2.600,     0.000,     0.000,     0.000,     0.000,   2
 53404,'LD',1,   9,   1,     6.440,     2.970,     0.000,     0.000,     0.000,     0.000,   2
 53604,'LD',1,   9,   1,     5.550,     1.820,     0.000,     0.000,     0.000,     0.000,   2
 53804,'LD',1,   5,   1,     6.380,     4.230,     0.000,     0.000,     0.000,     0.000,   2
 54404,'LD',1,   5,   1,    21.630,     5.410,     0.000,     0.000,     0.000,     0.000,   2
 54801,'DM',1,   3,   2,     2.500,     0.800,     0.000,     0.000,     0.000,     0.000,   5
 54801,'MI',0,   3,   2,     6.000,     1.800,     0.000,     0.000,     0.000,     0.000,   5
...
0 / END OF LOAD DATA, BEGIN GENERATOR DATA
 10204,'1 ',     0.893,    -0.280,    -0.280,    -0.280,1.04000,     0,     2.685,   0.00000,   0.25400,   0.00000,   0.06000,1.00000,1,  100.0,     2.550,     0.000,   4,1.0000
 10204,'2 ',     0.231,    -0.070,    -0.070,    -0.070,1.04000,     0,     0.895,   0.00000,   0.25400,   0.00000,   0.20000,1.00000,1,  100.0,     0.660,     0.000,   4,1.0000
 10204,'3 ',     2.625,    -0.820,    -0.820,    -0.820,1.04000,     0,     8.625,   0.00000, 999.00000,   0.00000,   0.20000,1.00000,1,  100.0,     7.500,     0.000,   2,1.0000
 10271,'1 ',    21.000,     0.000,    15.000,    -7.000,1.00000,  1021,    34.000,   0.00000,   0.26000,   0.00000,   0.00000,1.00000,0,   15.0,    21.000,     5.000,   3,1.0000
 10272,'2 ',    22.000,     0.000,    15.000,    -7.000,1.00000,  1021,    34.000,   0.00000,   0.26000,   0.00000,   0.00000,1.00000,0,   15.0,    22.000,     5.000,   3,1.0000
 10273,'3 ',    19.000,     0.000,    15.000,    -7.000,1.00000,  1021,    34.000,   0.00000,   0.26000,   0.00000,   0.00000,1.00000,0,   15.0,    19.000,     5.000,   3,1.0000
 10274,'4 ',    24.000,     0.000,    15.000,    -7.000,1.00000,  1021,    34.000,   0.00000,   0.25000,   0.00000,   0.00000,1.00000,0,   15.0,    24.000,     5.000,   3,1.0000
 10471,'1 ',   270.000,     0.000,   153.000,   -53.000,1.02000,  1042,   318.800,   0.00000,   0.26400,   0.00000,   0.00000,1.00000,0,  153.0,   270.000,    40.000,   3,1.0000
 10472,'11',    90.000,     0.000,    60.000,   -30.000,1.02000,  1072,   100.900,   0.00000,   0.14700,   0.00000,   0.00000,1.00000,0,   60.0,    90.000,    20.000,   3,1.0000
 10473,'12',    90.000,     0.000,    60.000,   -30.000,1.02000,  1052,   100.900,   0.00000,   0.14700,   0.00000,   0.00000,1.00000,0,   60.0,    90.000,    20.000,   3,1.0000
 10474,'14',    90.000,     0.000,    60.000,   -30.000,1.02000,  1072,   100.900,   0.00000,   0.14700,   0.00000,   0.00000,1.00000,0,   60.0,    90.000,    20.000,   3,1.0000
 10475,'5 ',    52.300,     0.000,    32.600,   -22.700,1.02000,  1041,    62.000,   0.00000,   0.25400,   0.00000,   0.00000,1.00000,0,   32.6,    52.300,     1.200,   3,1.0000
 10602,'1 ',     0.420,    -0.130,    -0.130,    -0.130,1.04000,     0,     1.380,   0.00000,   0.25400,   0.00000,   0.20000,1.00000,1,  100.0,     1.200,     0.000,   4,1.0000
 10602,'2 ',     1.680,    -0.520,    -0.520,    -0.520,1.04000,     0,     5.520,   0.00000,   0.25400,   0.00000,   0.20000,1.00000,1,  100.0,     4.800,     0.000,   4,1.0000
 10602,'3 ',     1.750,    -0.550,    -0.550,    -0.550,1.04000,     0,     5.750,   0.00000,   0.25400,   0.00000,   0.20000,1.00000,1,  100.0,     5.000,     0.000,   4,1.0000
 10602,'5 ',     1.890,    -1.770,    -1.770,    -2.300,1.04000,     0,     7.050,   0.00000,   0.25400,   0.00000,   0.05640,1.00000,1,  100.0,     5.400,     0.000,   2,1.0000
 11204,'1 ',     8.820,    -2.750,    -2.750,    -2.750,1.04000,     0,    29.000,   0.00000,   0.25400,   0.00000,   0.20000,1.00000,1,  100.0,    25.200,     0.000,   2,1.0000
 11371,'1 ',    17.850,    -7.286,    11.900,   -11.900,1.00000,  1131,    58.650,   0.00000,   0.25400,   0.00000,   0.00000,1.00000,1,  100.0,    51.000,     0.000,   4,1.0000
 12371,'1 ',    14.700,    -9.700,     9.700,    -9.700,1.00000,  1231,    42.000,   0.00000,   0.25400,   0.00000,   0.00000,1.00000,1,  100.0,    42.000,     0.000,   4,1.0000
 12571,'1 ',     6.807,     1.899,     4.490,    -4.490,1.00000,  1251,    23.925,   0.00000,   0.25400,   0.00000,   0.00000,1.00000,1,  100.0,    19.450,     0.000,   4,1.0000
 12804,'1 ',     2.975,    -0.930,    -0.930,    -0.930,1.04000,     0,     8.950,   0.00000,   0.25400,   0.00000,   0.20000,1.00000,1,  100.0,     8.500,     0.000,   2,1.0000
 12804,'2 ',     6.842,    -2.140,    -2.140,    -2.140,1.04000,     0,    20.585,   0.00000,   0.25400,   0.00000,   0.20000,1.00000,1,  100.0,    19.550,     0.000,   2,1.0000
 13404,'1 ',     0.231,    -0.070,    -0.070,    -0.070,1.04000,     0,     0.759,   0.00000,   0.25400,   0.00000,   0.20000,1.00000,1,  100.0,     0.660,     0.000,   4,1.0000
 13404,'2 ',     0.893,    -0.280,    -0.280,    -0.280,1.04000,     0,     2.685,   0.00000,   0.25400,   0.00000,   0.20000,1.00000,1,  100.0,     2.550,     0.000,   2,1.0000
 13404,'3 ',     4.165,    -1.300,    -1.300,    -1.300,1.04000,     0,    13.685,   0.00000,   0.25400,   0.00000,   0.20000,1.00000,1,  100.0,    11.900,     0.000,   2,1.0000
 13404,'4 ',     5.250,    -1.640,    -1.640,    -1.640,1.04000,     0,    17.170,   0.00000,   0.25400,   0.00000,   0.20000,1.00000,1,  100.0,    15.000,     0.000,   2,1.0000
 13404,'5 ',     2.100,    -0.660,    -0.660,    -0.660,1.04000,     0,     6.900,   0.00000,   0.25400,   0.00000,   0.20000,1.00000,1,  100.0,     6.000,     0.000,   2,1.0000
 13404,'6 ',     2.678,    -0.840,    -0.840,    -0.840,1.04000,     0,     8.055,   0.00000,   0.25400,   0.00000,   0.20000,1.00000,1,  100.0,     7.650,     0.000,   2,1.0000
 14002,'3 ',     2.257,    -0.700,    -0.700,    -0.700,1.04000,     0,     7.418,   0.00000,   0.25400,   0.00000,   0.10000,1.00000,1,  100.0,     6.450,     0.000,   3,1.0000
 14404,'1 ',     1.575,    -0.490,    -0.490,    -0.490,1.04000,     0,     5.151,   0.00000,   0.25400,   0.00000,   0.20000,1.00000,1,  100.0,     4.500,     0.000,   2,1.0000
 14604,'1 ',     4.800,     0.000,     1.000,    -1.000,1.05000,     0,     7.000,   0.00000,   0.14800,   0.00000,   0.10000,1.00000,0,    1.0,     4.800,     0.000,   5,1.0000
 14804,'1 ',     0.595,    -0.190,    -0.190,    -0.190,1.04000,     0,     1.790,   0.00000,   0.25400,   0.00000,   0.20000,1.00000,1,  100.0,     1.700,     0.000,   4,1.0000
 16371,'1 ',     1.190,     0.490,     0.490,    -0.770,1.01500, 16302,     3.580,   0.00000,   0.25400,   0.00000,   0.10000,1.00000,1,  100.0,     3.400,     0.000,   1,1.0000
 16372,'2 ',     1.190,    -0.710,     0.490,    -0.770,1.00000,     0,     3.580,   0.00000,   0.25400,   0.00000,   0.10000,1.00000,1,  100.0,     3.400,     0.000,   1,1.0000
 16373,'3 ',     2.380,     0.980,     0.980,    -1.610,1.01500, 16302,     7.160,   0.00000,   0.25400,   0.00000,   0.10000,1.00000,1,  100.0,     6.800,     0.000,   1,1.0000
 16374,'4 ',     2.660,     1.760,     1.760,    -1.760,1.01500, 16302,     8.055,   0.00000,   0.25400,   0.00000,   0.10000,1.00000,1,  100.0,     7.600,     0.000,   1,1.0000
 16375,'5 ',     1.487,     0.980,     0.980,    -0.980,1.01500, 16302,     4.475,   0.00000,   0.25400,   0.00000,   0.10000,1.00000,1,  100.0,     4.250,     0.000,   1,1.0000
 16376,'6 ',     1.732,    -0.540,    -0.540,    -0.540,1.00000,     0,     5.370,   0.00000,   0.25400,   0.00000,   0.10000,1.00000,1,  100.0,     4.950,     0.000,   4,1.0000
 16377,'1 ',     3.150,    -2.008,     2.100,    -2.100,1.00000,  1631,     9.570,   0.00000,   0.25400,   0.00000,   0.00000,1.00000,1,  100.0,     9.000,     0.000,   1,1.0000
 16378,'1 ',     0.559,    -0.530,    -0.530,    -0.680,1.04000,     0,     1.790,   0.00000,   0.25400,   0.00000,   0.00000,1.00000,1,  100.0,     1.598,     0.000,   1,1.0000
 16571,'1 ',    13.230,    -5.632,     8.770,    -8.770,1.00000,  1651,    39.000,   0.00000,   0.25400,   0.00000,   0.00000,1.00000,1,  100.0,    37.800,     0.000,   4,1.0000
 16602,'1 ',     1.190,    -0.370,    -0.370,    -0.370,1.04000,     0,     3.580,   0.00000,   0.25400,   0.00000,   0.06000,1.00000,1,  100.0,     3.400,     0.000,   4,1.0000
 16604,'2 ',     6.545,    -2.040,    -2.040,    -2.040,1.00000,     0,    19.690,   0.00000,   0.25400,   0.00000,   0.20000,1.00000,1,  100.0,    18.700,     0.000,   4,1.0000
 16604,'3 ',     0.735,    -0.230,    -0.230,    -0.230,1.00000,     0,     2.300,   0.00000,   0.25400,   0.00000,   0.00000,1.00000,1,  100.0,     2.100,     0.000,   2,1.0000
 16873,'3 ',     8.000,     0.000,     7.000,    -1.000,1.00000,  1681,    11.500,   0.00000,   0.31700,   0.00000,   0.00000,1.00000,0,    7.0,     8.000,     2.000,   3,1.0000
 17004,'5 ',     0.693,    -0.220,    -0.220,    -0.220,1.04000,     0,     3.100,   0.00000,   0.25400,   0.00000,   0.20000,1.00000,1,  100.0,     1.980,     0.000,   4,1.0000
 17004,'6 ',     0.385,    -0.120,    -0.120,    -0.120,1.04000,     0,     1.500,   0.00000,   0.25400,   0.00000,   0.20000,1.00000,1,  100.0,     1.100,     0.000,   4,1.0000
 17004,'7 ',     1.190,    -0.370,    -0.370,    -0.370,1.04000,     0,     3.580,   0.00000,   0.25400,   0.00000,   0.20000,1.00000,1,  100.0,     3.400,     0.000,   2,1.0000
 17073,'3 ',    22.500,     0.000,     7.000,   -10.000,1.00000,  1701,    30.000,   0.00000,   0.25400,   0.00000,   0.00000,1.00000,0,    7.0,    22.500,     5.000,   3,1.0000
 17074,'4 ',    22.500,     0.000,     7.000,   -10.000,1.00000,  1701,    30.000,   0.00000,   0.25400,   0.00000,   0.00000,1.00000,0,    7.0,    22.500,     5.000,   3,1.0000
 17671,'1 ',    10.000,     0.000,     7.000,    -3.000,1.00000,  1701,    12.500,   0.00000,   0.19000,   0.00000,   0.00000,1.00000,0,    7.0,    10.000,     3.000,   3,1.0000
 17672,'2 ',    10.000,     0.000,     7.000,    -3.000,1.00000,  1701,    12.500,   0.00000,   0.19000,   0.00000,   0.00000,1.00000,0,    7.0,    10.000,     3.000,   3,1.0000
 17771,'1 ',    14.429,    -9.195,     9.590,    -9.590,1.00000,  2771,    42.925,   0.00000,   0.25400,   0.00000,   0.00000,1.00000,1,  100.0,    41.225,     0.000,   4,1.0000
 18404,'1 ',     1.747,    -0.550,    -0.550,    -0.550,1.04000,     0,     5.739,   0.00000,   0.25400,   0.00000,   0.20000,1.00000,1,  100.0,     4.990,     0.000,   2,1.0000
 18802,'1 ',     1.050,    -0.330,    -0.330,    -0.330,1.04000,     0,     3.125,   0.00000,   0.25400,   0.00000,   0.07962,1.00000,1,  100.0,     3.000,     0.000,   1,1.0000
 19071,'1 ',     0.893,    -0.280,    -0.280,    -0.280,1.04000,     0,     2.685,   0.00000,   0.25400,   0.00000,   0.06000,1.00000,1,  100.0,     2.550,     0.000,   4,1.0000
 19071,'2 ',     0.595,    -0.560,    -0.560,    -0.730,1.04000,     0,     1.790,   0.00000,   0.25400,   0.00000,   0.06000,1.00000,1,  100.0,     1.700,     0.000,   4,1.0000
 19072,'1 ',     1.750,    -0.550,    -0.550,    -0.550,1.04000,     0,     7.050,   0.00000,   0.25400,   0.00000,   0.05640,1.00000,1,  100.0,     4.999,     0.000,   4,1.0000
 19072,'2 ',     1.575,    -0.490,    -0.490,    -0.490,1.04000,     0,     4.700,   0.00000,   0.25400,   0.00000,   0.05647,1.00000,1,  100.0,     4.500,     0.000,   4,1.0000
 19371,'1 ',    12.180,    -5.360,    -5.360,    -5.360,1.00000,  1931,    36.500,   0.00000,   0.25400,   0.00000,   0.00000,1.00000,1,  100.0,    34.800,     0.000,   4,1.0000
 19471,'1 ',   130.000,     0.000,    75.000,   -50.000,1.00000,  1941,   153.000,   0.00000,   0.18800,   0.00000,   0.00000,1.00000,0,   75.0,   130.000,    60.000,   4,1.0000
 19771,'1 ',    14.875,    -9.648,     5.950,    -9.940,1.00000,  1971,    45.000,   0.00000,   0.25400,   0.00000,   0.00000,1.00000,1,  100.0,    42.500,     0.000,   4,1.0000
 21004,'1 ',     2.625,    -0.820,    -0.820,    -0.820,1.04000,     0,     8.625,   0.00000,   0.25400,   0.00000,   0.20000,1.00000,1,  100.0,     7.500,     0.000,   4,1.0000
 21004,'2 ',     0.175,    -0.050,    -0.050,    -0.050,1.04000,     0,     0.895,   0.00000,   0.25400,   0.00000,   0.20000,1.00000,1,  100.0,     0.500,     0.000,   2,1.0000
 21402,'1 ',     0.595,    -0.560,    -0.560,    -0.730,1.04000,     0,     1.790,   0.00000,   0.25400,   0.00000,   0.06000,1.00000,1,  100.0,     1.700,     0.000,   1,1.0000
 21802,'1 ',     0.595,    -0.190,    -0.190,    -0.190,1.04000,     0,     1.790,   0.00000,   0.25400,   0.00000,   0.06000,1.00000,1,  100.0,     1.700,     0.000,   4,1.0000
 21802,'2 ',     1.050,    -0.990,    -0.990,    -1.280,1.04000,     0,     3.125,   0.00000,   0.25400,   0.00000,   0.07962,1.00000,1,  100.0,     3.000,     0.000,   1,1.0000
 22204,'1 ',     1.617,    -0.500,    -0.500,    -0.500,1.04000,     0,     5.313,   0.00000,   0.25400,   0.00000,   0.20000,1.00000,1,  100.0,     4.620,     0.000,   3,1.0000
 22204,'2 ',     2.079,    -0.650,    -0.650,    -0.650,1.04000,     0,     6.831,   0.00000,   0.25400,   0.00000,   0.20000,1.00000,1,  100.0,     5.940,     0.000,   3,1.0000
 22204,'3 ',     2.082,    -0.650,    -0.650,    -0.650,1.04000,     0,     6.868,   0.00000,   0.25400,   0.00000,   0.20000,1.00000,1,  100.0,     5.950,     0.000,   4,1.0000
 22204,'4 ',     1.487,    -0.460,    -0.460,    -0.460,1.04000,     0,     5.000,   0.00000,   0.20000,   0.00000,   0.20000,1.00000,1,  100.0,     4.250,     0.000,   4,1.0000
 22371,'1 ',    20.825,   -13.880,     8.330,   -13.880,1.00000,  2231,    62.650,   0.00000,   0.25400,   0.00000,   0.00000,1.00000,1,  100.0,    59.500,     0.000,   4,1.0000
 22404,'1 ',     0.893,    -0.280,    -0.280,    -0.280,1.04000,     0,     2.685,   0.00000,   0.20000,   0.00000,   0.20000,1.00000,1,  100.0,     2.550,     0.000,   4,1.0000
 22404,'2 ',     1.487,    -0.460,    -0.460,    -0.460,1.04000,     0,     5.000,   0.00000,   0.20000,   0.00000,   0.20000,1.00000,1,  100.0,     4.250,     0.000,   4,1.0000
 22671,'1 ',    52.100,     0.000,    32.600,   -22.700,1.02000,  2261,    62.000,   0.00000,   0.25400,   0.00000,   0.00000,1.00000,0,   32.6,    52.100,     1.200,   3,1.0000
 22672,'2 ',    52.100,     0.000,    32.600,   -22.700,1.02000,  2261,    62.000,   0.00000,   0.25400,   0.00000,   0.00000,1.00000,0,   32.6,    52.100,     1.200,   3,1.0000
 22802,'1 ',     0.893,    -0.840,    -0.840,    -1.090,1.04000,     0,     2.685,   0.00000,   0.25400,   0.00000,   0.06000,1.00000,1,  100.0,     2.550,     0.000,   1,1.0000
 27204,'5 ',     4.000,     0.000,     1.000,    -1.000,1.04000,     0,     5.000,   0.00000,   0.30000,   0.00000,   0.10000,1.00000,0,    1.0,     4.000,     0.000,   3,1.0000
 27371,'1 ',     4.480,    -3.010,     1.820,    -3.010,1.00000,  2731,    15.215,   0.00000,   0.25400,   0.00000,   0.00000,1.00000,1,  100.0,    12.800,     0.000,   4,1.0000
 27372,'2 ',     5.950,    -3.990,     2.380,    -3.990,1.00000,  2731,    18.750,   0.00000,   0.25400,   0.00000,   0.00000,1.00000,1,  100.0,    17.000,     0.000,   4,1.0000
 27402,'1 ',     1.487,    -1.400,    -1.400,    -1.810,1.04000,     0,     4.475,   0.00000,   0.25400,   0.00000,   0.06000,1.00000,1,  100.0,     4.250,     0.000,   1,1.0000
 27471,'1 ',    57.000,     0.000,    42.000,    -3.000,1.00000,  2741,    75.000,   0.00000,   0.20300,   0.00000,   0.00000,1.00000,0,   42.0,    57.000,    25.000,   3,1.0000
 27472,'2 ',    57.000,     0.000,    40.000,    -3.000,1.00000,  2741,    75.000,   0.00000,   0.20300,   0.00000,   0.00000,1.00000,0,   40.0,    57.000,    25.000,   3,1.0000
 27473,'3 ',   116.000,     0.000,    82.000,   -48.000,1.04000,  2742,   150.000,   0.00000,   0.18500,   0.00000,   0.00000,1.00000,0,   82.0,   116.000,    30.000,   3,1.0000
 27804,'1 ',     1.155,    -0.360,    -0.360,    -0.360,1.04000,     0,     3.795,   0.00000,   0.25400,   0.00000,   0.20000,1.00000,1,  100.0,     3.300,     0.000,   4,1.0000
 27804,'2 ',     0.236,    -0.070,    -0.070,    -0.070,1.04000,     0,     0.776,   0.00000,   0.25400,   0.00000,   0.20000,1.00000,1,  100.0,     0.675,     0.000,   2,1.0000
 28002,'1 ',     5.250,    -2.170,    -2.170,    -2.170,1.00000,     0,    17.250,   0.00000,   0.25400,   0.00000,   0.10000,1.00000,1,  100.0,    15.000,     0.000,   4,1.0000
 28571,'1 ',   450.470,     0.000,   282.100,  -196.800,1.02000,  1062,   535.500,   0.00000,   0.24500,   0.00000,   0.00000,1.00000,0,  282.1,   450.470,   110.100,   4,1.0000
 28804,'2 ',     8.855,    -2.760,    -2.760,    -2.760,1.04000,     0,    28.578,   0.00000,   0.20000,   0.00000,   0.20000,1.00000,1,  100.0,    25.300,     0.000,   4,1.0000
 28814,'1 ',     3.675,    -1.150,    -1.150,    -1.150,1.04000,     0,    12.019,   0.00000,   0.25400,   0.00000,   0.20000,1.00000,1,  100.0,    10.500,     0.000,   2,1.0000
 29671,'ST',   120.000,     0.000,    90.000,   -47.000,1.04000,  2562,   150.000,   0.00000,   0.18800,   0.00000,   0.00000,1.00000,0,   90.0,   120.000,    40.000,   4,1.0000
 29672,'CT',   230.000,     0.000,   173.000,  -106.000,1.04000,  2562,   288.000,   0.00000,   0.17900,   0.00000,   0.00000,1.00000,0,  173.0,   230.000,   138.000,   4,1.0000
 29673,'2 ',   258.000,   -62.760,   249.000,  -100.000,1.04000,  2562,   473.000,   0.00500,   0.25600,   0.00000,   0.00000,1.00000,1,  249.0,   400.000,   257.000,   4,1.0000
 30671,'1 ',    15.000,     0.000,    13.000,    -4.000,1.00000,  3061,    21.400,   0.00000,   0.20300,   0.00000,   0.00000,1.00000,0,    3.0,    15.000,     4.000,   3,1.0000
 30671,'2 ',     4.000,     0.000,     3.000,    -1.000,1.00000,  3061,     5.700,   0.00000,   0.17800,   0.00000,   0.00000,1.00000,0,    3.0,     4.000,     1.000,   3,1.0000
 31002,'1 ',     0.893,    -0.280,    -0.280,    -0.280,1.04000,     0,     2.685,   0.00000,   0.25400,   0.00000,   0.06000,1.00000,1,  100.0,     2.550,     0.000,   1,1.0000
 31004,'1 ',     0.893,    -0.280,    -0.280,    -0.280,1.04000,     0,     2.685,   0.00000,   0.25400,   0.00000,   0.20000,1.00000,1,  100.0,     2.550,     0.000,   2,1.0000
 31271,'1 ',   250.000,    38.016,   200.000,  -114.000,1.04000,  3122,   500.000,   0.00000,   0.27000,   0.00000,   0.00000,1.00000,1,  200.0,   409.900,   163.000,   4,1.0000
 32404,'1 ',     4.100,     0.000,     1.000,    -1.000,1.04000,     0,     4.800,   0.00000,   0.25000,   0.00000,   0.06000,1.00000,0,    1.0,     4.100,     0.000,   2,1.0000
 32604,'1 ',     7.500,     0.000,     1.000,    -1.000,1.05000,     0,     8.500,   0.00000,   0.14800,   0.00000,   0.10000,1.00000,0,    1.0,     7.500,     0.000,   5,1.0000
 33004,'1 ',     3.272,    -1.020,    -1.020,    -1.020,1.04000,     0,     9.845,   0.00000,   0.25400,   0.00000,   0.20000,1.00000,1,  100.0,     9.350,     0.000,   2,1.0000
 35002,'1 ',     1.750,    -1.640,    -1.640,    -2.130,1.04000,     0,     6.045,   0.00000,   0.25400,   0.00000,   0.06717,1.00000,1,  100.0,     5.000,     0.000,   2,1.0000
 35074,'4 ',   100.000,     0.000,    60.000,   -20.000,1.00000,  3501,   121.100,   0.00500,   0.23000,   0.00000,   0.00000,1.00000,0,   60.0,   100.000,    25.000,   3,1.0000
 35771,'1 ',   380.000,    59.105,   250.000,   -80.000,1.02000,  3572,   500.000,   0.00000,   0.22500,   0.00000,   0.00000,1.00000,1,  250.0,   442.960,   222.000,   1,1.0000
 35802,'1 ',     0.893,    -0.280,    -0.280,    -0.280,1.04000,     0,     2.685,   0.00000,   0.25400,   0.00000,   0.06000,1.00000,1,  100.0,     2.550,     0.000,   4,1.0000
 35802,'2 ',     0.893,    -0.280,    -0.280,    -0.280,1.04000,     0,     2.685,   0.00000,   0.25400,   0.00000,   0.06000,1.00000,1,  100.0,     2.550,     0.000,   4,1.0000
 35804,'1 ',     5.250,    -1.640,    -1.640,    -1.640,1.04000,     0,    17.250,   0.00000,   0.25400,   0.00000,   0.20000,1.00000,1,  100.0,    15.000,     0.000,   4,1.0000
 35804,'2 ',     1.743,    -0.540,    -0.540,    -0.540,1.04000,     0,     5.727,   0.00000,   0.25400,   0.00000,   0.20000,1.00000,1,  100.0,     4.980,     0.000,   4,1.0000
 35804,'3 ',     4.158,    -1.300,    -1.300,    -1.300,1.04000,     0,    13.662,   0.00000,   0.25400,   0.00000,   0.20000,1.00000,1,  100.0,    11.880,     0.000,   4,1.0000
 35804,'6 ',     1.785,    -0.560,    -0.560,    -0.560,1.04000,     0,     5.370,   0.00000,   0.25400,   0.00000,   0.20000,1.00000,1,  100.0,     5.100,     0.000,   2,1.0000
 38002,'1 ',     0.595,    -0.560,    -0.560,    -0.730,1.04000,     0,     1.790,   0.00000,   0.25400,   0.00000,   0.06000,1.00000,1,  100.0,     1.700,     0.000,   1,1.0000
 38204,'1 ',     3.675,    -1.150,    -1.150,    -1.150,1.04000,     0,    12.019,   0.00000,   0.25400,   0.00000,   0.20000,1.00000,1,  100.0,    10.500,     0.000,   4,1.0000
 38204,'2 ',     1.575,    -0.490,    -0.490,    -0.490,1.04000,     0,     5.151,   0.00000,   0.25400,   0.00000,   0.20000,1.00000,1,  100.0,     4.500,     0.000,   4,1.0000
 38804,'1 ',     5.250,    -1.640,    -1.640,    -1.640,1.04000,     0,    17.250,   0.00000,   0.25400,   0.00000,   0.20000,1.00000,1,  100.0,    15.000,     0.000,   2,1.0000
 39471,'1 ',   180.000,    -8.251,   160.000,   -70.000,1.04000,  3934,   359.000,   0.00000,   0.19500,   0.00000,   0.00000,1.00000,1,  160.0,   302.500,   115.000,   3,1.0000
 39472,'2 ',   180.000,   104.590,   160.000,   -70.000,1.04000,  3954,   359.000,   0.00000,   0.19500,   0.00000,   0.00000,1.00000,1,  160.0,   302.500,   115.000,   3,1.0000
 39473,'3 ',   180.000,    -8.251,   160.000,   -70.000,1.04000,  3944,   359.000,   0.00000,   0.19500,   0.00000,   0.00000,1.00000,1,  160.0,   302.500,   115.000,   3,1.0000
 39474,'4 ',     7.665,    -2.390,    -2.390,    -2.390,1.04000,     0,    22.725,   0.00000,   0.20000,   0.00000,   0.00000,1.00000,1,  100.0,    21.900,     0.000,   3,1.0000
 39672,'2 ',    30.000,     0.000,    15.000,     0.000,1.00000,  3961,    40.000,   0.00000,   0.15500,   0.00000,   0.00000,1.00000,0,   15.0,    30.000,    10.000,   3,1.0000
 39675,'GT',    90.000,     0.000,    60.000,   -19.000,1.00000,  3961,   100.900,   0.00000,   0.14700,   0.00000,   0.00000,1.00000,0,   60.0,    90.000,    60.000,   3,1.0000
 40204,'1 ',     7.000,    -2.190,    -2.190,    -2.190,1.04000,     0,    23.000,   0.00000,   0.25400,   0.00000,   0.20000,1.00000,1,  100.0,    20.000,     0.000,   4,1.0000
 40404,'1 ',     2.100,    -0.660,    -0.660,    -0.660,1.04000,     0,    10.000,   0.00000,   0.25400,   0.00000,   0.20000,1.00000,1,  100.0,     6.000,     0.000,   4,1.0000
 40771,'1 ',    18.515,     0.000,     0.000,     0.000,1.00000,     0,    59.800,   0.00000,   0.25400,   0.00000,   0.00000,1.00000,1,  100.0,    52.900,     0.000,   4,1.0000
 40772,'2 ',     6.321,     0.000,     0.000,     0.000,1.00000,     0,    21.900,   0.00000,   0.25400,   0.00000,   0.00000,1.00000,1,  100.0,    18.060,     0.000,   4,1.0000
 40773,'3 ',     4.900,    -3.290,     1.960,    -3.290,1.00000,  4071,    14.720,   0.00000,   0.25400,   0.00000,   0.00000,1.00000,1,  100.0,    14.000,     0.000,   7,1.0000
 42202,'1 ',     1.750,    -1.640,    -1.640,    -2.130,1.04000,     0,     6.045,   0.00000,   0.25400,   0.00000,   0.06717,1.00000,1,  100.0,     5.000,     0.000,   1,1.0000
...